%chk=gau.chk
# opt cam-b3lyp/6-31g(d) geom=connectivity

Title Card Required

1 1
 C                  0.25939641    0.27083596    0.00000000
 H                  0.79536859   -0.65524925    0.00000000
 H                 -0.81060300    0.26971305    0.00000000
 N                  0.90502036    1.39180460    0.00000000
 H                  1.90501981    1.39285405    0.00000000
 H                  0.40411179    2.25730480    0.00000000

 1 2 1.0 3 1.0 4 2.0
 2
 3
 4 5 1.0 6 1.0
 5
 6


