%chk=gaussian.chk
%mem=1GB
%nproc=2
#  b3lyp/6-31G** scf=(tight,maxcycle=10000) iop(9/40=20) nosymm 

[0] [0]

1   3   
n           -2.3414018   1.0782246   0.0000000
c           -1.3053844   0.2902906   0.0000000
h           -2.4751460   1.2000094  -0.5085497
h           -2.2338625   1.5283161   0.2778391
h           -1.4250684  -0.1793010  -0.2928518
h           -0.8693637   0.5561227  -0.2445856

--LINK1--
%chk=gaussian.chk
%mem=1GB
%nproc=2
# force b3lyp/6-31G** scf=(tight,maxcycle=10000) iop(9/40=20) nosymm  geom=AllCheck Guess=Read 

