%mem=1GB
%nproc=2
%nproclinda=1
# HF/6-31G(D,P) nosymm iop(2/12=3,3/33=1) guess=only pop=full

 ch2nh2 iop(9/40=20)
 Point  2 -- high level on model system.

0   1   
o        -2.39686552     0.12698128     0.11121069
h        -1.24300588     0.20672591     0.16044778
h        -2.84454833     0.14331878     1.10133648
o        -2.39686552     0.38312217     0.11121069
h        -1.24300588     0.20672591     0.16044778
h        -2.84454833     0.14331878     1.10133648
 

