 #P B3LYP/6-31G(D,P) nosymm iop(2/12=3,3/33=1) guess=only pop=full

 ch2nh2
 Point  2 -- high level on model system.

 0,1
  O                                 -0.368705030000     -2.194244570000      0.000000000000
  H                                  0.591294970000     -2.194244570000      0.000000000000
  H                                 -0.689159620000     -1.289308740000      0.000000000000
  O                                 -2.347122270000      0.341726610000      0.000000000000
  H                                 -1.387122270000      0.341726610000      0.000000000000
  H                                 -2.667576860000      1.246662440000      0.000000000000


