%chk=oniom.chk
%mem=1GB
%nproc=2
%nproclinda=1
#P  IOp(2/15=1,5/32=2,5/38=1) B3LYP/6-31G(D,P)   pop=full

 ch2nh2 iop(9/40=20)
 Point  2 -- high level on model system.

0   1   
O-O_3--0.834000      -0.19511030    -1.16114422     0.00000000  
H-H_-0.417000         0.31289982    -1.16114422     0.00000000  
H-H_-0.417000        -0.36468756    -0.68227280     0.00000000  
O-#6--0.834000       -1.24204361     0.18083393     0.00000000  
H-#6-0.417000        -0.73403349     0.18083393     0.00000000  
H-#6-0.417000        -1.41162088     0.65970535     0.00000000  

 1 2 1.000 3 1.000
 2 1 1.000
 3 1 1.000
 4 5 1.000 6 1.000
 5 4 1.000
 6 4 1.000
 
--LINK1--
%chk=oniom.chk
%mem=1GB
%nproc=2
%nproclinda=1
#P force  B3LYP/6-31G(D,P) TD(SINGLET,nstates=2,root=1)  IOp(2/15=1,5/32=2,5/38=1) geom=AllCheck Guess=Read  iop(9/40=20) pop=full

