%chk=oniom.chk
%mem=1GB
%nproc=2
%nproclinda=1
#P force IOp(2/15=1,5/32=2,5/38=1) PM6 

 ch2nh2 iop(9/40=20)
 Point  3 -- low level on real system.

0   1   
O-O_3--0.834000      -2.39686552     0.38312217     0.11121069  
H-H_-0.417000        -1.24300588     0.20672591     0.16044778  
H-H_-0.417000        -2.84454833     0.14331878     1.10133648  
O-O_3--0.834000      -2.40350883    -0.09930598    -0.82372000  
H-H_-0.417000        -0.36219210     0.36383800    -0.69486638  
H-H_-0.417000        -1.01780703     0.96135626     0.86659694  

 1 2 1.000 3 1.000
 2 1 1.000
 3 1 1.000
 4 5 1.000 6 1.000
 5 4 1.000
 6 4 1.000
 
