 #P Test IOp(2/15=1,5/32=2,5/38=1) B3LYP/6-31G*

 ch2nh2 iop(9/40=20)
 Point  3 -- low level on real system.

 0,1
  O                                                -0.368705030000     -2.194244570000      0.000000000000
  H                                                 0.591294970000     -2.194244570000      0.000000000000
  H                                                -0.689159620000     -1.289308740000      0.000000000000
  O                                                -2.347122270000      0.341726610000      0.000000000000
  H                                                -1.387122270000      0.341726610000      0.000000000000
  H                                                -2.667576860000      1.246662440000      0.000000000000

 1 2 1.000 3 1.000
 2 1 1.000
 3 1 1.000
 4 5 1.000 6 1.000
 5 4 1.000
 6 4 1.000


