 #P Test IOp(2/15=1,5/32=2,5/38=1) B3LYP/6-31G*

 ch2nh2 iop(9/40=20)
 Point  1 -- low level on model system.

 0,1
  O                                                -0.368705030000     -2.194244570000      0.000000000000
  H                                                 0.591294970000     -2.194244570000      0.000000000000
  H                                                -0.689159620000     -1.289308740000      0.000000000000

